plots/csv/rotor_angle_dev_bus24_julia.csv
t_s,rotor_angle_dev_rad,bus_voltage_angle_dev_rad,angle_source,angle_is_exact_bus_voltage
0.0,0.0,0.0,Vmag_get_voltage_magnitude_series__angle_get_voltage_angle_series,true
0.01,-1.5439038936193827e-17,-1.5439038936193827e-17,Vmag_get_voltage_magnitude_series__angle_get_voltage_angle_series,true
0.02,-2.8952534814053123e-16,-2.8952534814053123e-16,Vmag_get_voltage_magnitude_series__angle_get_voltage_angle_series,true
0.03,-3.7643499428697656e-17,-3.7643499428697656e-17,Vmag_get_voltage_magnitude_series__angle_get_voltage_angle_series,true
0.04,-4.336808689941476e-17,-4.336808689941476e-17,Vmag_get_voltage_magnitude_series__angle_get_voltage_angle_series,true
0.05,-1.925543058334261e-17,-1.925543058334261e-17,Vmag_get_voltage_magnitude_series__angle_get_voltage_angle_series,true
0.06,-2.048708425128558e-16,-2.048708425128558e-16,Vmag_get_voltage_magnitude_series__angle_get_voltage_angle_series,true
0.07,-8.25728374565011e-17,-8.25728374565011e-17,Vmag_get_voltage_magnitude_series__angle_get_voltage_angle_series,true
0.08,-1.0755285551059691e-17,-1.0755285551059691e-17,Vmag_get_voltage_magnitude_series__angle_get_voltage_angle_series,true
0.09,-1.0113437864945041e-16,-1.0113437864945041e-16,Vmag_get_voltage_magnitude_series__angle_get_voltage_angle_series,true
0.1,9.627715291671279e-17,9.627715291671279e-17,Vmag_get_voltage_magnitude_series__angle_get_voltage_angle_series,true
0.11,-0.0034003007274398403,-0.0034003007274398403,Vmag_get_voltage_magnitude_series__angle_get_voltage_angle_series,true
0.12,-0.0036560484794337746,-0.0036560484794337746,Vmag_get_voltage_magnitude_series__angle_get_voltage_angle_series,true
0.13,-0.003877092588283841,-0.003877092588283841,Vmag_get_voltage_magnitude_series__angle_get_voltage_angle_series,true
0.14,-0.00418972667224029,-0.00418972667224029,Vmag_get_voltage_magnitude_series__angle_get_voltage_angle_series,true
0.15,-0.004458552339374601,-0.004458552339374601,Vmag_get_voltage_magnitude_series__angle_get_voltage_angle_series,true
0.16,-0.004773113174451044,-0.004773113174451044,Vmag_get_voltage_magnitude_series__angle_get_voltage_angle_series,true
0.17,-0.005105960565962164,-0.005105960565962164,Vmag_get_voltage_magnitude_series__angle_get_voltage_angle_series,true
0.18,-0.0054636878211293625,-0.0054636878211293625,Vmag_get_voltage_magnitude_series__angle_get_voltage_angle_series,true
0.19,-0.005841531618142842,-0.005841531618142842,Vmag_get_voltage_magnitude_series__angle_get_voltage_angle_series,true
0.2,-0.00624036929244654,-0.00624036929244654,Vmag_get_voltage_magnitude_series__angle_get_voltage_angle_series,true
0.21,-0.0066580116142572945,-0.0066580116142572945,Vmag_get_voltage_magnitude_series__angle_get_voltage_angle_series,true
0.22,-0.00709319576505826,-0.00709319576505826,Vmag_get_voltage_magnitude_series__angle_get_voltage_angle_series,true
0.23,-0.007544306979369222,-0.007544306979369222,Vmag_get_voltage_magnitude_series__angle_get_voltage_angle_series,true
0.24,-0.00800987665631105,-0.00800987665631105,Vmag_get_voltage_magnitude_series__angle_get_voltage_angle_series,true
0.25,-0.008488388388454551,-0.008488388388454551,Vmag_get_voltage_magnitude_series__angle_get_voltage_angle_series,true
0.26,-0.008978398117102625,-0.008978398117102625,Vmag_get_voltage_magnitude_series__angle_get_voltage_angle_series,true
0.27,-0.009478500819986354,-0.009478500819986354,Vmag_get_voltage_magnitude_series__angle_get_voltage_angle_series,true
0.28,-0.009987350330574025,-0.009987350330574025,Vmag_get_voltage_magnitude_series__angle_get_voltage_angle_series,true
0.29,-0.010503652697793346,-0.010503652697793346,Vmag_get_voltage_magnitude_series__angle_get_voltage_angle_series,true
0.3,-0.011026167608176526,-0.011026167608176526,Vmag_get_voltage_magnitude_series__angle_get_voltage_angle_series,true
0.31,-0.011553704592979311,-0.011553704592979311,Vmag_get_voltage_magnitude_series__angle_get_voltage_angle_series,true
0.32,-0.012085119836478427,-0.012085119836478427,Vmag_get_voltage_magnitude_series__angle_get_voltage_angle_series,true
0.33,-0.012619312500758779,-0.012619312500758779,Vmag_get_voltage_magnitude_series__angle_get_voltage_angle_series,true
0.34,-0.01315522135290071,-0.01315522135290071,Vmag_get_voltage_magnitude_series__angle_get_voltage_angle_series,true
0.35,-0.013691821715808919,-0.013691821715808919,Vmag_get_voltage_magnitude_series__angle_get_voltage_angle_series,true
0.36,-0.014228122868299654,-0.014228122868299654,Vmag_get_voltage_magnitude_series__angle_get_voltage_angle_series,true
0.37,-0.014763166124365696,-0.014763166124365696,Vmag_get_voltage_magnitude_series__angle_get_voltage_angle_series,true
0.38,-0.01529602340884367,-0.01529602340884367,Vmag_get_voltage_magnitude_series__angle_get_voltage_angle_series,true
0.39,-0.015825796408467648,-0.015825796408467648,Vmag_get_voltage_magnitude_series__angle_get_voltage_angle_series,true
0.4,-0.016351616211827853,-0.016351616211827853,Vmag_get_voltage_magnitude_series__angle_get_voltage_angle_series,true
0.41,-0.016872643372623522,-0.016872643372623522,Vmag_get_voltage_magnitude_series__angle_get_voltage_angle_series,true
0.42,-0.017388068388967268,-0.017388068388967268,Vmag_get_voltage_magnitude_series__angle_get_voltage_angle_series,true
0.43,-0.017897112402433954,-0.017897112402433954,Vmag_get_voltage_magnitude_series__angle_get_voltage_angle_series,true
0.44,-0.018399028180754635,-0.018399028180754635,Vmag_get_voltage_magnitude_series__angle_get_voltage_angle_series,true
0.45,-0.018893101177006436,-0.018893101177006436,Vmag_get_voltage_magnitude_series__angle_get_voltage_angle_series,true
0.46,-0.019378650767392702,-0.019378650767392702,Vmag_get_voltage_magnitude_series__angle_get_voltage_angle_series,true
0.47,-0.019855031458122542,-0.019855031458122542,Vmag_get_voltage_magnitude_series__angle_get_voltage_angle_series,true
0.48,-0.020321634151281492,-0.020321634151281492,Vmag_get_voltage_magnitude_series__angle_get_voltage_angle_series,true
0.49,-0.020777887262566127,-0.020777887262566127,Vmag_get_voltage_magnitude_series__angle_get_voltage_angle_series,true
0.5,-0.021223257910081297,-0.021223257910081297,Vmag_get_voltage_magnitude_series__angle_get_voltage_angle_series,true
0.51,-0.0216572528894975,-0.0216572528894975,Vmag_get_voltage_magnitude_series__angle_get_voltage_angle_series,true
0.52,-0.02207941963576144,-0.02207941963576144,Vmag_get_voltage_magnitude_series__angle_get_voltage_angle_series,true
0.53,-0.02248934692377479,-0.02248934692377479,Vmag_get_voltage_magnitude_series__angle_get_voltage_angle_series,true
0.54,-0.022886665598006155,-0.022886665598006155,Vmag_get_voltage_magnitude_series__angle_get_voltage_angle_series,true
0.55,-0.02327104904117274,-0.02327104904117274,Vmag_get_voltage_magnitude_series__angle_get_voltage_angle_series,true
0.56,-0.02364221357848367,-0.02364221357848367,Vmag_get_voltage_magnitude_series__angle_get_voltage_angle_series,true
0.57,-0.023999918630288823,-0.023999918630288823,Vmag_get_voltage_magnitude_series__angle_get_voltage_angle_series,true
0.58,-0.024343966844601456,-0.024343966844601456,Vmag_get_voltage_magnitude_series__angle_get_voltage_angle_series,true
0.59,-0.024674203979823433,-0.024674203979823433,Vmag_get_voltage_magnitude_series__angle_get_voltage_angle_series,true
0.6,-0.024990518720444055,-0.024990518720444055,Vmag_get_voltage_magnitude_series__angle_get_voltage_angle_series,true
0.61,-0.02529284224468451,-0.02529284224468451,Vmag_get_voltage_magnitude_series__angle_get_voltage_angle_series,true
0.62,-0.02558114772667157,-0.02558114772667157,Vmag_get_voltage_magnitude_series__angle_get_voltage_angle_series,true
0.63,-0.025855449668210274,-0.025855449668210274,Vmag_get_voltage_magnitude_series__angle_get_voltage_angle_series,true
0.64,-0.02611580305944499,-0.02611580305944499,Vmag_get_voltage_magnitude_series__angle_get_voltage_angle_series,true
0.65,-0.026362302453542617,-0.026362302453542617,Vmag_get_voltage_magnitude_series__angle_get_voltage_angle_series,true
0.66,-0.0265950807822747,-0.0265950807822747,Vmag_get_voltage_magnitude_series__angle_get_voltage_angle_series,true
0.67,-0.026814308180218287,-0.026814308180218287,Vmag_get_voltage_magnitude_series__angle_get_voltage_angle_series,true
0.68,-0.02702019056353524,-0.02702019056353524,Vmag_get_voltage_magnitude_series__angle_get_voltage_angle_series,true
0.69,-0.027212968105334127,-0.027212968105334127,Vmag_get_voltage_magnitude_series__angle_get_voltage_angle_series,true
0.7,-0.027392913620991548,-0.027392913620991548,Vmag_get_voltage_magnitude_series__angle_get_voltage_angle_series,true
0.71,-0.027560330752421636,-0.027560330752421636,Vmag_get_voltage_magnitude_series__angle_get_voltage_angle_series,true
0.72,-0.027715552140795616,-0.027715552140795616,Vmag_get_voltage_magnitude_series__angle_get_voltage_angle_series,true
0.73,-0.027858937404555473,-0.027858937404555473,Vmag_get_voltage_magnitude_series__angle_get_voltage_angle_series,true
0.74,-0.02799087107082744,-0.02799087107082744,Vmag_get_voltage_magnitude_series__angle_get_voltage_angle_series,true
0.75,-0.028111760423263216,-0.028111760423263216,Vmag_get_voltage_magnitude_series__angle_get_voltage_angle_series,true
0.76,-0.028222033246807183,-0.028222033246807183,Vmag_get_voltage_magnitude_series__angle_get_voltage_angle_series,true
0.77,-0.028322135551107575,-0.028322135551107575,Vmag_get_voltage_magnitude_series__angle_get_voltage_angle_series,true
0.78,-0.028412529210108194,-0.028412529210108194,Vmag_get_voltage_magnitude_series__angle_get_voltage_angle_series,true
0.79,-0.02849368958729997,-0.02849368958729997,Vmag_get_voltage_magnitude_series__angle_get_voltage_angle_series,true
0.8,-0.02856610313792099,-0.02856610313792099,Vmag_get_voltage_magnitude_series__angle_get_voltage_angle_series,true
0.81,-0.02863026501046842,-0.02863026501046842,Vmag_get_voltage_magnitude_series__angle_get_voltage_angle_series,true
0.82,-0.02868667664781796,-0.02868667664781796,Vmag_get_voltage_magnitude_series__angle_get_voltage_angle_series,true
0.83,-0.028735843396246047,-0.028735843396246047,Vmag_get_voltage_magnitude_series__angle_get_voltage_angle_series,true
0.84,-0.028778272177139918,-0.028778272177139918,Vmag_get_voltage_magnitude_series__angle_get_voltage_angle_series,true
0.85,-0.028814469213666496,-0.028814469213666496,Vmag_get_voltage_magnitude_series__angle_get_voltage_angle_series,true
0.86,-0.028844937789711665,-0.028844937789711665,Vmag_get_voltage_magnitude_series__angle_get_voltage_angle_series,true
0.87,-0.028870176087820353,-0.028870176087820353,Vmag_get_voltage_magnitude_series__angle_get_voltage_angle_series,true
0.88,-0.028890675128203487,-0.028890675128203487,Vmag_get_voltage_magnitude_series__angle_get_voltage_angle_series,true
0.89,-0.028906916831758913,-0.028906916831758913,Vmag_get_voltage_magnitude_series__angle_get_voltage_angle_series,true
0.9,-0.02891937213456656,-0.02891937213456656,Vmag_get_voltage_magnitude_series__angle_get_voltage_angle_series,true
0.91,-0.028928499243281364,-0.028928499243281364,Vmag_get_voltage_magnitude_series__angle_get_voltage_angle_series,true
0.92,-0.028934742027810757,-0.028934742027810757,Vmag_get_voltage_magnitude_series__angle_get_voltage_angle_series,true
0.93,-0.028938528538060213,-0.028938528538060213,Vmag_get_voltage_magnitude_series__angle_get_voltage_angle_series,true
0.94,-0.028940269668960947,-0.028940269668960947,Vmag_get_voltage_magnitude_series__angle_get_voltage_angle_series,true
0.95,-0.028940357928741493,-0.028940357928741493,Vmag_get_voltage_magnitude_series__angle_get_voltage_angle_series,true
0.96,-0.02893916640427394,-0.02893916640427394,Vmag_get_voltage_magnitude_series__angle_get_voltage_angle_series,true
0.97,-0.028937047832682142,-0.028937047832682142,Vmag_get_voltage_magnitude_series__angle_get_voltage_angle_series,true
0.98,-0.02893433387220472,-0.02893433387220472,Vmag_get_voltage_magnitude_series__angle_get_voltage_angle_series,true
0.99,-0.028931334461675666,-0.028931334461675666,Vmag_get_voltage_magnitude_series__angle_get_voltage_angle_series,true
1.0,-0.02892833736567084,-0.02892833736567084,Vmag_get_voltage_magnitude_series__angle_get_voltage_angle_series,true
1.01,-0.02892560787616068,-0.02892560787616068,Vmag_get_voltage_magnitude_series__angle_get_voltage_angle_series,true
1.02,-0.02892338861298479,-0.02892338861298479,Vmag_get_voltage_magnitude_series__angle_get_voltage_angle_series,true
1.03,-0.028921899526281828,-0.028921899526281828,Vmag_get_voltage_magnitude_series__angle_get_voltage_angle_series,true
1.04,-0.02892133795892284,-0.02892133795892284,Vmag_get_voltage_magnitude_series__angle_get_voltage_angle_series,true
1.05,-0.02892187890945388,-0.02892187890945388,Vmag_get_voltage_magnitude_series__angle_get_voltage_angle_series,true
1.06,-0.028923675376840936,-0.028923675376840936,Vmag_get_voltage_magnitude_series__angle_get_voltage_angle_series,true
1.07,-0.028926858812606975,-0.028926858812606975,Vmag_get_voltage_magnitude_series__angle_get_voltage_angle_series,true
1.08,-0.028931539719953082,-0.028931539719953082,Vmag_get_voltage_magnitude_series__angle_get_voltage_angle_series,true
1.09,-0.028937808303680753,-0.028937808303680753,Vmag_get_voltage_magnitude_series__angle_get_voltage_angle_series,true
1.1,-0.028945735261563604,-0.028945735261563604,Vmag_get_voltage_magnitude_series__angle_get_voltage_angle_series,true
1.11,-0.028955372605768637,-0.028955372605768637,Vmag_get_voltage_magnitude_series__angle_get_voltage_angle_series,true
1.12,-0.02896675460118927,-0.02896675460118927,Vmag_get_voltage_magnitude_series__angle_get_voltage_angle_series,true
1.13,-0.028979898727321575,-0.028979898727321575,Vmag_get_voltage_magnitude_series__angle_get_voltage_angle_series,true
1.14,-0.02899480673038025,-0.02899480673038025,Vmag_get_voltage_magnitude_series__angle_get_voltage_angle_series,true
1.15,-0.02901146569224035,-0.02901146569224035,Vmag_get_voltage_magnitude_series__angle_get_voltage_angle_series,true
1.16,-0.02902984914767072,-0.02902984914767072,Vmag_get_voltage_magnitude_series__angle_get_voltage_angle_series,true
1.17,-0.029049918212937773,-0.029049918212937773,Vmag_get_voltage_magnitude_series__angle_get_voltage_angle_series,true
1.18,-0.029071622756838403,-0.029071622756838403,Vmag_get_voltage_magnitude_series__angle_get_voltage_angle_series,true
1.19,-0.029094902547556867,-0.029094902547556867,Vmag_get_voltage_magnitude_series__angle_get_voltage_angle_series,true
1.2,-0.02911968842647178,-0.02911968842647178,Vmag_get_voltage_magnitude_series__angle_get_voltage_angle_series,true
1.21,-0.029145903446537766,-0.029145903446537766,Vmag_get_voltage_magnitude_series__angle_get_voltage_angle_series,true
1.22,-0.029173464019669082,-0.029173464019669082,Vmag_get_voltage_magnitude_series__angle_get_voltage_angle_series,true
1.23,-0.029202281021320987,-0.029202281021320987,Vmag_get_voltage_magnitude_series__angle_get_voltage_angle_series,true
1.24,-0.029232260882321212,-0.029232260882321212,Vmag_get_voltage_magnitude_series__angle_get_voltage_angle_series,true
1.25,-0.029263306623259492,-0.029263306623259492,Vmag_get_voltage_magnitude_series__angle_get_voltage_angle_series,true
1.26,-0.02929531886009859,-0.02929531886009859,Vmag_get_voltage_magnitude_series__angle_get_voltage_angle_series,true
1.27,-0.02932819676974021,-0.02932819676974021,Vmag_get_voltage_magnitude_series__angle_get_voltage_angle_series,true
1.28,-0.02936183899011927,-0.02936183899011927,Vmag_get_voltage_magnitude_series__angle_get_voltage_angle_series,true
1.29,-0.029396144472093235,-0.029396144472093235,Vmag_get_voltage_magnitude_series__angle_get_voltage_angle_series,true
1.3,-0.029431013270553807,-0.029431013270553807,Vmag_get_voltage_magnitude_series__angle_get_voltage_angle_series,true
1.31,-0.029466347281823922,-0.029466347281823922,Vmag_get_voltage_magnitude_series__angle_get_voltage_angle_series,true
1.32,-0.029502050918093017,-0.029502050918093017,Vmag_get_voltage_magnitude_series__angle_get_voltage_angle_series,true
1.33,-0.02953803170449957,-0.02953803170449957,Vmag_get_voltage_magnitude_series__angle_get_voltage_angle_series,true
1.34,-0.029574200826844838,-0.029574200826844838,Vmag_get_voltage_magnitude_series__angle_get_voltage_angle_series,true
1.35,-0.02961047360942349,-0.02961047360942349,Vmag_get_voltage_magnitude_series__angle_get_voltage_angle_series,true
1.36,-0.029646769931112874,-0.029646769931112874,Vmag_get_voltage_magnitude_series__angle_get_voltage_angle_series,true
1.37,-0.029683014568132923,-0.029683014568132923,Vmag_get_voltage_magnitude_series__angle_get_voltage_angle_series,true
1.38,-0.029719137480613344,-0.029719137480613344,Vmag_get_voltage_magnitude_series__angle_get_voltage_angle_series,true
1.39,-0.029755074042412177,-0.029755074042412177,Vmag_get_voltage_magnitude_series__angle_get_voltage_angle_series,true
1.4,-0.029790765201886497,-0.029790765201886497,Vmag_get_voltage_magnitude_series__angle_get_voltage_angle_series,true
1.41,-0.029826157597150946,-0.029826157597150946,Vmag_get_voltage_magnitude_series__angle_get_voltage_angle_series,true
1.42,-0.029861203598219463,-0.029861203598219463,Vmag_get_voltage_magnitude_series__angle_get_voltage_angle_series,true
1.43,-0.02989586131808704,-0.02989586131808704,Vmag_get_voltage_magnitude_series__angle_get_voltage_angle_series,true
1.44,-0.029930094567318044,-0.029930094567318044,Vmag_get_voltage_magnitude_series__angle_get_voltage_angle_series,true
1.45,-0.02996387275941994,-0.02996387275941994,Vmag_get_voltage_magnitude_series__angle_get_voltage_angle_series,true
1.46,-0.029997170780107912,-0.029997170780107912,Vmag_get_voltage_magnitude_series__angle_get_voltage_angle_series,true
1.47,-0.03002996881309168,-0.03002996881309168,Vmag_get_voltage_magnitude_series__angle_get_voltage_angle_series,true
1.48,-0.030062252140647283,-0.030062252140647283,Vmag_get_voltage_magnitude_series__angle_get_voltage_angle_series,true
1.49,-0.03009401090826159,-0.03009401090826159,Vmag_get_voltage_magnitude_series__angle_get_voltage_angle_series,true
1.5,-0.030125239857852447,-0.030125239857852447,Vmag_get_voltage_magnitude_series__angle_get_voltage_angle_series,true
1.51,-0.03015593804507734,-0.03015593804507734,Vmag_get_voltage_magnitude_series__angle_get_voltage_angle_series,true
1.52,-0.030186108538644257,-0.030186108538644257,Vmag_get_voltage_magnitude_series__angle_get_voltage_angle_series,true
1.53,-0.030215758098858514,-0.030215758098858514,Vmag_get_voltage_magnitude_series__angle_get_voltage_angle_series,true
1.54,-0.030244896850273532,-0.030244896850273532,Vmag_get_voltage_magnitude_series__angle_get_voltage_angle_series,true
1.55,-0.030273537935256587,-0.030273537935256587,Vmag_get_voltage_magnitude_series__angle_get_voltage_angle_series,true
1.56,-0.030301697177189245,-0.030301697177189245,Vmag_get_voltage_magnitude_series__angle_get_voltage_angle_series,true
1.57,-0.030329392733736096,-0.030329392733736096,Vmag_get_voltage_magnitude_series__angle_get_voltage_angle_series,true
1.58,-0.03035664475448757,-0.03035664475448757,Vmag_get_voltage_magnitude_series__angle_get_voltage_angle_series,true
1.59,-0.030383475034911935,-0.030383475034911935,Vmag_get_voltage_magnitude_series__angle_get_voltage_angle_series,true
1.6,-0.03040990669001127,-0.03040990669001127,Vmag_get_voltage_magnitude_series__angle_get_voltage_angle_series,true
1.61,-0.03043596382897173,-0.03043596382897173,Vmag_get_voltage_magnitude_series__angle_get_voltage_angle_series,true
1.62,-0.030461671244721537,-0.030461671244721537,Vmag_get_voltage_magnitude_series__angle_get_voltage_angle_series,true
1.63,-0.03048705411326768,-0.03048705411326768,Vmag_get_voltage_magnitude_series__angle_get_voltage_angle_series,true
1.64,-0.03051213771080948,-0.03051213771080948,Vmag_get_voltage_magnitude_series__angle_get_voltage_angle_series,true
1.65,-0.03053694715027216,-0.03053694715027216,Vmag_get_voltage_magnitude_series__angle_get_voltage_angle_series,true
1.66,-0.030561507132889562,-0.030561507132889562,Vmag_get_voltage_magnitude_series__angle_get_voltage_angle_series,true
1.67,-0.030585841718260565,-0.030585841718260565,Vmag_get_voltage_magnitude_series__angle_get_voltage_angle_series,true
1.68,-0.03060997411549527,-0.03060997411549527,Vmag_get_voltage_magnitude_series__angle_get_voltage_angle_series,true
1.69,-0.030633926495645072,-0.030633926495645072,Vmag_get_voltage_magnitude_series__angle_get_voltage_angle_series,true
1.7,-0.03065771982801469,-0.03065771982801469,Vmag_get_voltage_magnitude_series__angle_get_voltage_angle_series,true
1.71,-0.03068137373099946,-0.03068137373099946,Vmag_get_voltage_magnitude_series__angle_get_voltage_angle_series,true
1.72,-0.030704906348371894,-0.030704906348371894,Vmag_get_voltage_magnitude_series__angle_get_voltage_angle_series,true
1.73,-0.030728334248478713,-0.030728334248478713,Vmag_get_voltage_magnitude_series__angle_get_voltage_angle_series,true
1.74,-0.030751672339936368,-0.030751672339936368,Vmag_get_voltage_magnitude_series__angle_get_voltage_angle_series,true
1.75,-0.030774933812383626,-0.030774933812383626,Vmag_get_voltage_magnitude_series__angle_get_voltage_angle_series,true
1.76,-0.030798130092400615,-0.030798130092400615,Vmag_get_voltage_magnitude_series__angle_get_voltage_angle_series,true
1.77,-0.030821270819982725,-0.030821270819982725,Vmag_get_voltage_magnitude_series__angle_get_voltage_angle_series,true
1.78,-0.030844363846462955,-0.030844363846462955,Vmag_get_voltage_magnitude_series__angle_get_voltage_angle_series,true
1.79,-0.030867415243640697,-0.030867415243640697,Vmag_get_voltage_magnitude_series__angle_get_voltage_angle_series,true
1.8,-0.03089042933340666,-0.03089042933340666,Vmag_get_voltage_magnitude_series__angle_get_voltage_angle_series,true
1.81,-0.030913408728821694,-0.030913408728821694,Vmag_get_voltage_magnitude_series__angle_get_voltage_angle_series,true
1.82,-0.030936354393089463,-0.030936354393089463,Vmag_get_voltage_magnitude_series__angle_get_voltage_angle_series,true
1.83,-0.03095926570623784,-0.03095926570623784,Vmag_get_voltage_magnitude_series__angle_get_voltage_angle_series,true
1.84,-0.030982140545594866,-0.030982140545594866,Vmag_get_voltage_magnitude_series__angle_get_voltage_angle_series,true
1.85,-0.03100497537447352,-0.03100497537447352,Vmag_get_voltage_magnitude_series__angle_get_voltage_angle_series,true
1.86,-0.031027765341394127,-0.031027765341394127,Vmag_get_voltage_magnitude_series__angle_get_voltage_angle_series,true
1.87,-0.031050504383931154,-0.031050504383931154,Vmag_get_voltage_magnitude_series__angle_get_voltage_angle_series,true
1.88,-0.031073185340122506,-0.031073185340122506,Vmag_get_voltage_magnitude_series__angle_get_voltage_angle_series,true
1.89,-0.03109580006209781,-0.03109580006209781,Vmag_get_voltage_magnitude_series__angle_get_voltage_angle_series,true
1.9,-0.03111833953609585,-0.03111833953609585,Vmag_get_voltage_magnitude_series__angle_get_voltage_angle_series,true
1.91,-0.03114079400174349,-0.03114079400174349,Vmag_get_voltage_magnitude_series__angle_get_voltage_angle_series,true
1.92,-0.031163153074149668,-0.031163153074149668,Vmag_get_voltage_magnitude_series__angle_get_voltage_angle_series,true
1.93,-0.031185405863558814,-0.031185405863558814,Vmag_get_voltage_magnitude_series__angle_get_voltage_angle_series,true
1.94,-0.03120754109529137,-0.03120754109529137,Vmag_get_voltage_magnitude_series__angle_get_voltage_angle_series,true
1.95,-0.031229547228218836,-0.031229547228218836,Vmag_get_voltage_magnitude_series__angle_get_voltage_angle_series,true
1.96,-0.03125141256807228,-0.03125141256807228,Vmag_get_voltage_magnitude_series__angle_get_voltage_angle_series,true
1.97,-0.0312731253774091,-0.0312731253774091,Vmag_get_voltage_magnitude_series__angle_get_voltage_angle_series,true
1.98,-0.03129467398153344,-0.03129467398153344,Vmag_get_voltage_magnitude_series__angle_get_voltage_angle_series,true
1.99,-0.03131604686905014,-0.03131604686905014,Vmag_get_voltage_magnitude_series__angle_get_voltage_angle_series,true
...
